<?xml version="1.0" encoding="UTF-8"?>

<mule xmlns:ee="http://www.mulesoft.org/schema/mule/ee/core" xmlns:sockets="http://www.mulesoft.org/schema/mule/sockets"
      xmlns:http="http://www.mulesoft.org/schema/mule/http"
      xmlns="http://www.mulesoft.org/schema/mule/core" xmlns:doc="http://www.mulesoft.org/schema/mule/documentation" xmlns:xsi="http://www.w3.org/2001/XMLSchema-instance" xsi:schemaLocation="http://www.mulesoft.org/schema/mule/core http://www.mulesoft.org/schema/mule/core/current/mule.xsd
http://www.mulesoft.org/schema/mule/http http://www.mulesoft.org/schema/mule/http/current/mule-http.xsd
http://www.mulesoft.org/schema/mule/sockets http://www.mulesoft.org/schema/mule/sockets/current/mule-sockets.xsd
http://www.mulesoft.org/schema/mule/ee/core http://www.mulesoft.org/schema/mule/ee/core/current/mule-ee.xsd">
    <http:listener-config name="config" doc:name="HTTP Listener config" doc:id="85b56e19-f77d-4d11-bfbe-b30beae6e98a" basePath="mule4">
        <http:listener-connection host="0.0.0.0" port="8081" />
    </http:listener-config>
    <flow name="demoPrivateFlow" doc:id="7ef1d386-6d32-46ce-940a-4865603b13ea" >
        <logger level="INFO" doc:name="Logger" doc:id="389470bd-5fc3-4928-adbb-3177c38bccc4" message="xxx: private flow invoked"/>
    </flow>
    <flow name="demoFlow" doc:id="7e3855d0-bb40-460c-999b-b4705f53198c" >
        <http:listener doc:name="Listener" doc:id="2d80f8b6-ba81-46e0-91b7-516a8e4fdb67" config-ref="config" path="/flow" allowedMethods="GET"/>
        <logger level="INFO" doc:name="Logger" doc:id="af520ce8-f697-4442-8729-866a2a6ae7a4" message="xxx: logger invoked via http end point"/>
        <flow-ref doc:name="Flow Reference" doc:id="6022619f-49d4-4928-bfbf-ab4d31bc9b49" name="demoPrivateFlow"/>
        <logger level="INFO" doc:name="Logger" doc:id="59bcdc96-fdd3-45b7-82b7-91fc9a85a366" message="xxx: end of main flow"/>
    </flow>
</mule>
