<?xml version="1.0" encoding="UTF-8"?>

<mule xmlns:tracking="http://www.mulesoft.org/schema/mule/ee/tracking" xmlns:http="http://www.mulesoft.org/schema/mule/http" xmlns="http://www.mulesoft.org/schema/mule/core" xmlns:doc="http://www.mulesoft.org/schema/mule/documentation"
      xmlns:spring="http://www.springframework.org/schema/beans"
      xmlns:xsi="http://www.w3.org/2001/XMLSchema-instance"
      xsi:schemaLocation="http://www.springframework.org/schema/beans http://www.springframework.org/schema/beans/spring-beans-current.xsd
http://www.mulesoft.org/schema/mule/core http://www.mulesoft.org/schema/mule/core/current/mule.xsd
http://www.mulesoft.org/schema/mule/http http://www.mulesoft.org/schema/mule/http/current/mule-http.xsd
http://www.mulesoft.org/schema/mule/ee/tracking http://www.mulesoft.org/schema/mule/ee/tracking/current/mule-tracking-ee.xsd">
    <http:listener-config name="config" host="0.0.0.0" port="8081"  doc:name="HTTP Listener Configuration" basePath="mule3"/>
    <flow name="demoFlow">
        <http:listener config-ref="config" path="/"  doc:name="HTTP" allowedMethods="GET"/>
        <logger message="xxx: logger invoked via http end point" level="INFO" doc:name="Logger"/>
        <flow-ref name="demoSub_Flow" doc:name="Flow Reference"/>
        <logger message="xxx: logger after flow reference invoked" level="INFO" doc:name="Logger"/>
    </flow>
    <sub-flow name="demoSub_Flow">
        <logger message="xxx: sub flow logger invoked" level="INFO" doc:name="Logger"/>
        <set-payload value="This is a sub flow set-payload call" doc:name="Set Payload"/>
    </sub-flow>
</mule>
